[root]
type=Root
children=system
eventq_index=0
full_system=false
sim_quantum=0
time_sync_enable=false
time_sync_period=100000000000
time_sync_spin_threshold=100000000

[system]
type=System
children=caches clk_domain cpu0 cpu1 cpu2 cpu3 cpu4 cpu5 cpu6 cpu7 dvfs_handler mem_ctrl redirect_paths0 redirect_paths1 redirect_paths2 workload
auto_unlink_shared_backstore=false
cache_line_size=64
eventq_index=0
exit_on_work_items=false
init_param=0
m5ops_base=0
mem_mode=timing
mem_ranges=0:8589934592
memories=system.mem_ctrl.dram
mmap_using_noreserve=false
multi_thread=false
num_work_ids=16
readfile=
redirect_paths=system.redirect_paths0 system.redirect_paths1 system.redirect_paths2
shadow_rom_ranges=
shared_backstore=
symbolfile=
thermal_components=
thermal_model=Null
work_begin_ckpt_count=0
work_begin_cpu_id_exit=-1
work_begin_exit_count=0
work_cpus_ckpt_count=0
work_end_ckpt_count=0
work_end_exit_count=0
work_item_id=-1
workload=system.workload
system_port=system.caches.sys_port_proxy.in_ports[0]

[system.caches]
type=RubySystem
children=dir_cntrl0 l1_cntrl0 l1_cntrl1 l1_cntrl2 l1_cntrl3 l1_cntrl4 l1_cntrl5 l1_cntrl6 l1_cntrl7 l2_cntrl0 network power_state sys_port_proxy
access_backing_store=false
all_instructions=false
block_size_bytes=64
clk_domain=system.clk_domain
eventq_index=0
hot_lines=false
memory_size_bits=64
num_of_sequencers=8
number_of_virtual_networks=3
phys_mem=Null
power_model=
power_state=system.caches.power_state
randomization=false
system=system

[system.caches.dir_cntrl0]
type=Directory_Controller
children=directory forwardFromDir power_state requestToDir requestToMemory responseFromDir responseFromMemory responseToDir triggerQueue
addr_ranges=0:8589934592
buffer_size=0
clk_domain=system.clk_domain
cluster_id=0
directory=system.caches.dir_cntrl0.directory
directory_latency=6
downstream_destinations=
eventq_index=0
forwardFromDir=system.caches.dir_cntrl0.forwardFromDir
mandatory_queue_latency=1
number_of_TBEs=256
power_model=
power_state=system.caches.dir_cntrl0.power_state
recycle_latency=10
requestToDir=system.caches.dir_cntrl0.requestToDir
requestToMemory=system.caches.dir_cntrl0.requestToMemory
responseFromDir=system.caches.dir_cntrl0.responseFromDir
responseFromMemory=system.caches.dir_cntrl0.responseFromMemory
responseToDir=system.caches.dir_cntrl0.responseToDir
ruby_system=system.caches
system=system
to_memory_controller_latency=1
transitions_per_cycle=32
triggerQueue=system.caches.dir_cntrl0.triggerQueue
upstream_destinations=
version=0
memory_out_port=system.mem_ctrl.port

[system.caches.dir_cntrl0.directory]
type=RubyDirectoryMemory
addr_ranges=0:8589934592
eventq_index=0

[system.caches.dir_cntrl0.forwardFromDir]
type=MessageBuffer
allow_zero_latency=false
buffer_size=0
eventq_index=0
max_dequeue_rate=0
ordered=false
randomization=ruby_system
routing_priority=0
out_port=system.caches.network.in_port[1]

[system.caches.dir_cntrl0.power_state]
type=PowerState
clk_gate_bins=20
clk_gate_max=1000000000000
clk_gate_min=1000
default_state=UNDEFINED
eventq_index=0
leaders=
possible_states=

[system.caches.dir_cntrl0.requestToDir]
type=MessageBuffer
allow_zero_latency=false
buffer_size=0
eventq_index=0
max_dequeue_rate=0
ordered=false
randomization=ruby_system
routing_priority=0
in_port=system.caches.network.out_port[0]

[system.caches.dir_cntrl0.requestToMemory]
type=MessageBuffer
allow_zero_latency=false
buffer_size=0
eventq_index=0
max_dequeue_rate=0
ordered=false
randomization=ruby_system
routing_priority=0

[system.caches.dir_cntrl0.responseFromDir]
type=MessageBuffer
allow_zero_latency=false
buffer_size=0
eventq_index=0
max_dequeue_rate=0
ordered=false
randomization=ruby_system
routing_priority=0
out_port=system.caches.network.in_port[0]

[system.caches.dir_cntrl0.responseFromMemory]
type=MessageBuffer
allow_zero_latency=false
buffer_size=0
eventq_index=0
max_dequeue_rate=0
ordered=false
randomization=ruby_system
routing_priority=0

[system.caches.dir_cntrl0.responseToDir]
type=MessageBuffer
allow_zero_latency=false
buffer_size=0
eventq_index=0
max_dequeue_rate=0
ordered=false
randomization=ruby_system
routing_priority=0
in_port=system.caches.network.out_port[1]

[system.caches.dir_cntrl0.triggerQueue]
type=MessageBuffer
allow_zero_latency=false
buffer_size=0
eventq_index=0
max_dequeue_rate=0
ordered=true
randomization=ruby_system
routing_priority=0

[system.caches.l1_cntrl0]
type=L1Cache_Controller
children=L1Dcache L1Icache mandatoryQueue power_state requestFromL1Cache requestToL1Cache responseFromL1Cache responseToL1Cache sequencer triggerQueue
L1Dcache=system.caches.l1_cntrl0.L1Dcache
L1Icache=system.caches.l1_cntrl0.L1Icache
addr_ranges=0:18446744073709551615
buffer_size=0
clk_domain=system.clk_domain
cluster_id=0
downstream_destinations=
eventq_index=0
mandatoryQueue=system.caches.l1_cntrl0.mandatoryQueue
mandatory_queue_latency=1
number_of_TBEs=256
power_model=
power_state=system.caches.l1_cntrl0.power_state
recycle_latency=10
requestFromL1Cache=system.caches.l1_cntrl0.requestFromL1Cache
requestToL1Cache=system.caches.l1_cntrl0.requestToL1Cache
request_latency=1
responseFromL1Cache=system.caches.l1_cntrl0.responseFromL1Cache
responseToL1Cache=system.caches.l1_cntrl0.responseToL1Cache
response_latency=1
ruby_system=system.caches
send_evictions=true
sequencer=system.caches.l1_cntrl0.sequencer
system=system
transitions_per_cycle=32
triggerQueue=system.caches.l1_cntrl0.triggerQueue
upstream_destinations=
use_timeout_latency=50
version=0

[system.caches.l1_cntrl0.L1Dcache]
type=RubyCache
children=replacement_policy
assoc=8
atomicALUs=64
atomicLatency=0
block_size=0
dataAccessLatency=1
dataArrayBanks=1
eventq_index=0
is_icache=false
replacement_policy=system.caches.l1_cntrl0.L1Dcache.replacement_policy
resourceStalls=false
ruby_system=system.caches
size=16384
start_index_bit=6
tagAccessLatency=1
tagArrayBanks=1

[system.caches.l1_cntrl0.L1Dcache.replacement_policy]
type=TreePLRURP
eventq_index=0
num_leaves=8

[system.caches.l1_cntrl0.L1Icache]
type=RubyCache
children=replacement_policy
assoc=8
atomicALUs=64
atomicLatency=0
block_size=0
dataAccessLatency=1
dataArrayBanks=1
eventq_index=0
is_icache=true
replacement_policy=system.caches.l1_cntrl0.L1Icache.replacement_policy
resourceStalls=false
ruby_system=system.caches
size=16384
start_index_bit=6
tagAccessLatency=1
tagArrayBanks=1

[system.caches.l1_cntrl0.L1Icache.replacement_policy]
type=TreePLRURP
eventq_index=0
num_leaves=8

[system.caches.l1_cntrl0.mandatoryQueue]
type=MessageBuffer
allow_zero_latency=false
buffer_size=0
eventq_index=0
max_dequeue_rate=0
ordered=false
randomization=ruby_system
routing_priority=0

[system.caches.l1_cntrl0.power_state]
type=PowerState
clk_gate_bins=20
clk_gate_max=1000000000000
clk_gate_min=1000
default_state=UNDEFINED
eventq_index=0
leaders=
possible_states=

[system.caches.l1_cntrl0.requestFromL1Cache]
type=MessageBuffer
allow_zero_latency=false
buffer_size=0
eventq_index=0
max_dequeue_rate=0
ordered=false
randomization=ruby_system
routing_priority=0
out_port=system.caches.network.in_port[5]

[system.caches.l1_cntrl0.requestToL1Cache]
type=MessageBuffer
allow_zero_latency=false
buffer_size=0
eventq_index=0
max_dequeue_rate=0
ordered=false
randomization=ruby_system
routing_priority=0
in_port=system.caches.network.out_port[5]

[system.caches.l1_cntrl0.responseFromL1Cache]
type=MessageBuffer
allow_zero_latency=false
buffer_size=0
eventq_index=0
max_dequeue_rate=0
ordered=false
randomization=ruby_system
routing_priority=0
out_port=system.caches.network.in_port[6]

[system.caches.l1_cntrl0.responseToL1Cache]
type=MessageBuffer
allow_zero_latency=false
buffer_size=0
eventq_index=0
max_dequeue_rate=0
ordered=false
randomization=ruby_system
routing_priority=0
in_port=system.caches.network.out_port[6]

[system.caches.l1_cntrl0.sequencer]
type=RubySequencer
children=power_state
clk_domain=system.clk_domain
coreid=99
dcache=system.caches.l1_cntrl0.L1Dcache
deadlock_threshold=500000
eventq_index=0
garnet_standalone=false
is_cpu_sequencer=true
max_outstanding_requests=16
no_retry_on_stall=false
power_model=
power_state=system.caches.l1_cntrl0.sequencer.power_state
ruby_system=system.caches
support_data_reqs=true
support_inst_reqs=true
system=system
using_ruby_tester=false
version=0
in_ports=system.cpu0.icache_port system.cpu0.dcache_port system.cpu0.mmu.itb.walker.port system.cpu0.mmu.dtb.walker.port system.cpu0.interrupts.int_requestor
interrupt_out_port=system.cpu0.interrupts.pio system.cpu0.interrupts.int_responder

[system.caches.l1_cntrl0.sequencer.power_state]
type=PowerState
clk_gate_bins=20
clk_gate_max=1000000000000
clk_gate_min=1000
default_state=UNDEFINED
eventq_index=0
leaders=
possible_states=

[system.caches.l1_cntrl0.triggerQueue]
type=MessageBuffer
allow_zero_latency=false
buffer_size=0
eventq_index=0
max_dequeue_rate=0
ordered=true
randomization=ruby_system
routing_priority=0

[system.caches.l1_cntrl1]
type=L1Cache_Controller
children=L1Dcache L1Icache mandatoryQueue power_state requestFromL1Cache requestToL1Cache responseFromL1Cache responseToL1Cache sequencer triggerQueue
L1Dcache=system.caches.l1_cntrl1.L1Dcache
L1Icache=system.caches.l1_cntrl1.L1Icache
addr_ranges=0:18446744073709551615
buffer_size=0
clk_domain=system.clk_domain
cluster_id=0
downstream_destinations=
eventq_index=0
mandatoryQueue=system.caches.l1_cntrl1.mandatoryQueue
mandatory_queue_latency=1
number_of_TBEs=256
power_model=
power_state=system.caches.l1_cntrl1.power_state
recycle_latency=10
requestFromL1Cache=system.caches.l1_cntrl1.requestFromL1Cache
requestToL1Cache=system.caches.l1_cntrl1.requestToL1Cache
request_latency=1
responseFromL1Cache=system.caches.l1_cntrl1.responseFromL1Cache
responseToL1Cache=system.caches.l1_cntrl1.responseToL1Cache
response_latency=1
ruby_system=system.caches
send_evictions=true
sequencer=system.caches.l1_cntrl1.sequencer
system=system
transitions_per_cycle=32
triggerQueue=system.caches.l1_cntrl1.triggerQueue
upstream_destinations=
use_timeout_latency=50
version=1

[system.caches.l1_cntrl1.L1Dcache]
type=RubyCache
children=replacement_policy
assoc=8
atomicALUs=64
atomicLatency=0
block_size=0
dataAccessLatency=1
dataArrayBanks=1
eventq_index=0
is_icache=false
replacement_policy=system.caches.l1_cntrl1.L1Dcache.replacement_policy
resourceStalls=false
ruby_system=system.caches
size=16384
start_index_bit=6
tagAccessLatency=1
tagArrayBanks=1

[system.caches.l1_cntrl1.L1Dcache.replacement_policy]
type=TreePLRURP
eventq_index=0
num_leaves=8

[system.caches.l1_cntrl1.L1Icache]
type=RubyCache
children=replacement_policy
assoc=8
atomicALUs=64
atomicLatency=0
block_size=0
dataAccessLatency=1
dataArrayBanks=1
eventq_index=0
is_icache=true
replacement_policy=system.caches.l1_cntrl1.L1Icache.replacement_policy
resourceStalls=false
ruby_system=system.caches
size=16384
start_index_bit=6
tagAccessLatency=1
tagArrayBanks=1

[system.caches.l1_cntrl1.L1Icache.replacement_policy]
type=TreePLRURP
eventq_index=0
num_leaves=8

[system.caches.l1_cntrl1.mandatoryQueue]
type=MessageBuffer
allow_zero_latency=false
buffer_size=0
eventq_index=0
max_dequeue_rate=0
ordered=false
randomization=ruby_system
routing_priority=0

[system.caches.l1_cntrl1.power_state]
type=PowerState
clk_gate_bins=20
clk_gate_max=1000000000000
clk_gate_min=1000
default_state=UNDEFINED
eventq_index=0
leaders=
possible_states=

[system.caches.l1_cntrl1.requestFromL1Cache]
type=MessageBuffer
allow_zero_latency=false
buffer_size=0
eventq_index=0
max_dequeue_rate=0
ordered=false
randomization=ruby_system
routing_priority=0
out_port=system.caches.network.in_port[7]

[system.caches.l1_cntrl1.requestToL1Cache]
type=MessageBuffer
allow_zero_latency=false
buffer_size=0
eventq_index=0
max_dequeue_rate=0
ordered=false
randomization=ruby_system
routing_priority=0
in_port=system.caches.network.out_port[7]

[system.caches.l1_cntrl1.responseFromL1Cache]
type=MessageBuffer
allow_zero_latency=false
buffer_size=0
eventq_index=0
max_dequeue_rate=0
ordered=false
randomization=ruby_system
routing_priority=0
out_port=system.caches.network.in_port[8]

[system.caches.l1_cntrl1.responseToL1Cache]
type=MessageBuffer
allow_zero_latency=false
buffer_size=0
eventq_index=0
max_dequeue_rate=0
ordered=false
randomization=ruby_system
routing_priority=0
in_port=system.caches.network.out_port[8]

[system.caches.l1_cntrl1.sequencer]
type=RubySequencer
children=power_state
clk_domain=system.clk_domain
coreid=99
dcache=system.caches.l1_cntrl1.L1Dcache
deadlock_threshold=500000
eventq_index=0
garnet_standalone=false
is_cpu_sequencer=true
max_outstanding_requests=16
no_retry_on_stall=false
power_model=
power_state=system.caches.l1_cntrl1.sequencer.power_state
ruby_system=system.caches
support_data_reqs=true
support_inst_reqs=true
system=system
using_ruby_tester=false
version=1
in_ports=system.cpu1.icache_port system.cpu1.dcache_port system.cpu1.mmu.itb.walker.port system.cpu1.mmu.dtb.walker.port system.cpu1.interrupts.int_requestor
interrupt_out_port=system.cpu1.interrupts.pio system.cpu1.interrupts.int_responder

[system.caches.l1_cntrl1.sequencer.power_state]
type=PowerState
clk_gate_bins=20
clk_gate_max=1000000000000
clk_gate_min=1000
default_state=UNDEFINED
eventq_index=0
leaders=
possible_states=

[system.caches.l1_cntrl1.triggerQueue]
type=MessageBuffer
allow_zero_latency=false
buffer_size=0
eventq_index=0
max_dequeue_rate=0
ordered=true
randomization=ruby_system
routing_priority=0

[system.caches.l1_cntrl2]
type=L1Cache_Controller
children=L1Dcache L1Icache mandatoryQueue power_state requestFromL1Cache requestToL1Cache responseFromL1Cache responseToL1Cache sequencer triggerQueue
L1Dcache=system.caches.l1_cntrl2.L1Dcache
L1Icache=system.caches.l1_cntrl2.L1Icache
addr_ranges=0:18446744073709551615
buffer_size=0
clk_domain=system.clk_domain
cluster_id=0
downstream_destinations=
eventq_index=0
mandatoryQueue=system.caches.l1_cntrl2.mandatoryQueue
mandatory_queue_latency=1
number_of_TBEs=256
power_model=
power_state=system.caches.l1_cntrl2.power_state
recycle_latency=10
requestFromL1Cache=system.caches.l1_cntrl2.requestFromL1Cache
requestToL1Cache=system.caches.l1_cntrl2.requestToL1Cache
request_latency=1
responseFromL1Cache=system.caches.l1_cntrl2.responseFromL1Cache
responseToL1Cache=system.caches.l1_cntrl2.responseToL1Cache
response_latency=1
ruby_system=system.caches
send_evictions=true
sequencer=system.caches.l1_cntrl2.sequencer
system=system
transitions_per_cycle=32
triggerQueue=system.caches.l1_cntrl2.triggerQueue
upstream_destinations=
use_timeout_latency=50
version=2

[system.caches.l1_cntrl2.L1Dcache]
type=RubyCache
children=replacement_policy
assoc=8
atomicALUs=64
atomicLatency=0
block_size=0
dataAccessLatency=1
dataArrayBanks=1
eventq_index=0
is_icache=false
replacement_policy=system.caches.l1_cntrl2.L1Dcache.replacement_policy
resourceStalls=false
ruby_system=system.caches
size=16384
start_index_bit=6
tagAccessLatency=1
tagArrayBanks=1

[system.caches.l1_cntrl2.L1Dcache.replacement_policy]
type=TreePLRURP
eventq_index=0
num_leaves=8

[system.caches.l1_cntrl2.L1Icache]
type=RubyCache
children=replacement_policy
assoc=8
atomicALUs=64
atomicLatency=0
block_size=0
dataAccessLatency=1
dataArrayBanks=1
eventq_index=0
is_icache=true
replacement_policy=system.caches.l1_cntrl2.L1Icache.replacement_policy
resourceStalls=false
ruby_system=system.caches
size=16384
start_index_bit=6
tagAccessLatency=1
tagArrayBanks=1

[system.caches.l1_cntrl2.L1Icache.replacement_policy]
type=TreePLRURP
eventq_index=0
num_leaves=8

[system.caches.l1_cntrl2.mandatoryQueue]
type=MessageBuffer
allow_zero_latency=false
buffer_size=0
eventq_index=0
max_dequeue_rate=0
ordered=false
randomization=ruby_system
routing_priority=0

[system.caches.l1_cntrl2.power_state]
type=PowerState
clk_gate_bins=20
clk_gate_max=1000000000000
clk_gate_min=1000
default_state=UNDEFINED
eventq_index=0
leaders=
possible_states=

[system.caches.l1_cntrl2.requestFromL1Cache]
type=MessageBuffer
allow_zero_latency=false
buffer_size=0
eventq_index=0
max_dequeue_rate=0
ordered=false
randomization=ruby_system
routing_priority=0
out_port=system.caches.network.in_port[9]

[system.caches.l1_cntrl2.requestToL1Cache]
type=MessageBuffer
allow_zero_latency=false
buffer_size=0
eventq_index=0
max_dequeue_rate=0
ordered=false
randomization=ruby_system
routing_priority=0
in_port=system.caches.network.out_port[9]

[system.caches.l1_cntrl2.responseFromL1Cache]
type=MessageBuffer
allow_zero_latency=false
buffer_size=0
eventq_index=0
max_dequeue_rate=0
ordered=false
randomization=ruby_system
routing_priority=0
out_port=system.caches.network.in_port[10]

[system.caches.l1_cntrl2.responseToL1Cache]
type=MessageBuffer
allow_zero_latency=false
buffer_size=0
eventq_index=0
max_dequeue_rate=0
ordered=false
randomization=ruby_system
routing_priority=0
in_port=system.caches.network.out_port[10]

[system.caches.l1_cntrl2.sequencer]
type=RubySequencer
children=power_state
clk_domain=system.clk_domain
coreid=99
dcache=system.caches.l1_cntrl2.L1Dcache
deadlock_threshold=500000
eventq_index=0
garnet_standalone=false
is_cpu_sequencer=true
max_outstanding_requests=16
no_retry_on_stall=false
power_model=
power_state=system.caches.l1_cntrl2.sequencer.power_state
ruby_system=system.caches
support_data_reqs=true
support_inst_reqs=true
system=system
using_ruby_tester=false
version=2
in_ports=system.cpu2.icache_port system.cpu2.dcache_port system.cpu2.mmu.itb.walker.port system.cpu2.mmu.dtb.walker.port system.cpu2.interrupts.int_requestor
interrupt_out_port=system.cpu2.interrupts.pio system.cpu2.interrupts.int_responder

[system.caches.l1_cntrl2.sequencer.power_state]
type=PowerState
clk_gate_bins=20
clk_gate_max=1000000000000
clk_gate_min=1000
default_state=UNDEFINED
eventq_index=0
leaders=
possible_states=

[system.caches.l1_cntrl2.triggerQueue]
type=MessageBuffer
allow_zero_latency=false
buffer_size=0
eventq_index=0
max_dequeue_rate=0
ordered=true
randomization=ruby_system
routing_priority=0

[system.caches.l1_cntrl3]
type=L1Cache_Controller
children=L1Dcache L1Icache mandatoryQueue power_state requestFromL1Cache requestToL1Cache responseFromL1Cache responseToL1Cache sequencer triggerQueue
L1Dcache=system.caches.l1_cntrl3.L1Dcache
L1Icache=system.caches.l1_cntrl3.L1Icache
addr_ranges=0:18446744073709551615
buffer_size=0
clk_domain=system.clk_domain
cluster_id=0
downstream_destinations=
eventq_index=0
mandatoryQueue=system.caches.l1_cntrl3.mandatoryQueue
mandatory_queue_latency=1
number_of_TBEs=256
power_model=
power_state=system.caches.l1_cntrl3.power_state
recycle_latency=10
requestFromL1Cache=system.caches.l1_cntrl3.requestFromL1Cache
requestToL1Cache=system.caches.l1_cntrl3.requestToL1Cache
request_latency=1
responseFromL1Cache=system.caches.l1_cntrl3.responseFromL1Cache
responseToL1Cache=system.caches.l1_cntrl3.responseToL1Cache
response_latency=1
ruby_system=system.caches
send_evictions=true
sequencer=system.caches.l1_cntrl3.sequencer
system=system
transitions_per_cycle=32
triggerQueue=system.caches.l1_cntrl3.triggerQueue
upstream_destinations=
use_timeout_latency=50
version=3

[system.caches.l1_cntrl3.L1Dcache]
type=RubyCache
children=replacement_policy
assoc=8
atomicALUs=64
atomicLatency=0
block_size=0
dataAccessLatency=1
dataArrayBanks=1
eventq_index=0
is_icache=false
replacement_policy=system.caches.l1_cntrl3.L1Dcache.replacement_policy
resourceStalls=false
ruby_system=system.caches
size=16384
start_index_bit=6
tagAccessLatency=1
tagArrayBanks=1

[system.caches.l1_cntrl3.L1Dcache.replacement_policy]
type=TreePLRURP
eventq_index=0
num_leaves=8

[system.caches.l1_cntrl3.L1Icache]
type=RubyCache
children=replacement_policy
assoc=8
atomicALUs=64
atomicLatency=0
block_size=0
dataAccessLatency=1
dataArrayBanks=1
eventq_index=0
is_icache=true
replacement_policy=system.caches.l1_cntrl3.L1Icache.replacement_policy
resourceStalls=false
ruby_system=system.caches
size=16384
start_index_bit=6
tagAccessLatency=1
tagArrayBanks=1

[system.caches.l1_cntrl3.L1Icache.replacement_policy]
type=TreePLRURP
eventq_index=0
num_leaves=8

[system.caches.l1_cntrl3.mandatoryQueue]
type=MessageBuffer
allow_zero_latency=false
buffer_size=0
eventq_index=0
max_dequeue_rate=0
ordered=false
randomization=ruby_system
routing_priority=0

[system.caches.l1_cntrl3.power_state]
type=PowerState
clk_gate_bins=20
clk_gate_max=1000000000000
clk_gate_min=1000
default_state=UNDEFINED
eventq_index=0
leaders=
possible_states=

[system.caches.l1_cntrl3.requestFromL1Cache]
type=MessageBuffer
allow_zero_latency=false
buffer_size=0
eventq_index=0
max_dequeue_rate=0
ordered=false
randomization=ruby_system
routing_priority=0
out_port=system.caches.network.in_port[11]

[system.caches.l1_cntrl3.requestToL1Cache]
type=MessageBuffer
allow_zero_latency=false
buffer_size=0
eventq_index=0
max_dequeue_rate=0
ordered=false
randomization=ruby_system
routing_priority=0
in_port=system.caches.network.out_port[11]

[system.caches.l1_cntrl3.responseFromL1Cache]
type=MessageBuffer
allow_zero_latency=false
buffer_size=0
eventq_index=0
max_dequeue_rate=0
ordered=false
randomization=ruby_system
routing_priority=0
out_port=system.caches.network.in_port[12]

[system.caches.l1_cntrl3.responseToL1Cache]
type=MessageBuffer
allow_zero_latency=false
buffer_size=0
eventq_index=0
max_dequeue_rate=0
ordered=false
randomization=ruby_system
routing_priority=0
in_port=system.caches.network.out_port[12]

[system.caches.l1_cntrl3.sequencer]
type=RubySequencer
children=power_state
clk_domain=system.clk_domain
coreid=99
dcache=system.caches.l1_cntrl3.L1Dcache
deadlock_threshold=500000
eventq_index=0
garnet_standalone=false
is_cpu_sequencer=true
max_outstanding_requests=16
no_retry_on_stall=false
power_model=
power_state=system.caches.l1_cntrl3.sequencer.power_state
ruby_system=system.caches
support_data_reqs=true
support_inst_reqs=true
system=system
using_ruby_tester=false
version=3
in_ports=system.cpu3.icache_port system.cpu3.dcache_port system.cpu3.mmu.itb.walker.port system.cpu3.mmu.dtb.walker.port system.cpu3.interrupts.int_requestor
interrupt_out_port=system.cpu3.interrupts.pio system.cpu3.interrupts.int_responder

[system.caches.l1_cntrl3.sequencer.power_state]
type=PowerState
clk_gate_bins=20
clk_gate_max=1000000000000
clk_gate_min=1000
default_state=UNDEFINED
eventq_index=0
leaders=
possible_states=

[system.caches.l1_cntrl3.triggerQueue]
type=MessageBuffer
allow_zero_latency=false
buffer_size=0
eventq_index=0
max_dequeue_rate=0
ordered=true
randomization=ruby_system
routing_priority=0

[system.caches.l1_cntrl4]
type=L1Cache_Controller
children=L1Dcache L1Icache mandatoryQueue power_state requestFromL1Cache requestToL1Cache responseFromL1Cache responseToL1Cache sequencer triggerQueue
L1Dcache=system.caches.l1_cntrl4.L1Dcache
L1Icache=system.caches.l1_cntrl4.L1Icache
addr_ranges=0:18446744073709551615
buffer_size=0
clk_domain=system.clk_domain
cluster_id=0
downstream_destinations=
eventq_index=0
mandatoryQueue=system.caches.l1_cntrl4.mandatoryQueue
mandatory_queue_latency=1
number_of_TBEs=256
power_model=
power_state=system.caches.l1_cntrl4.power_state
recycle_latency=10
requestFromL1Cache=system.caches.l1_cntrl4.requestFromL1Cache
requestToL1Cache=system.caches.l1_cntrl4.requestToL1Cache
request_latency=1
responseFromL1Cache=system.caches.l1_cntrl4.responseFromL1Cache
responseToL1Cache=system.caches.l1_cntrl4.responseToL1Cache
response_latency=1
ruby_system=system.caches
send_evictions=true
sequencer=system.caches.l1_cntrl4.sequencer
system=system
transitions_per_cycle=32
triggerQueue=system.caches.l1_cntrl4.triggerQueue
upstream_destinations=
use_timeout_latency=50
version=4

[system.caches.l1_cntrl4.L1Dcache]
type=RubyCache
children=replacement_policy
assoc=8
atomicALUs=64
atomicLatency=0
block_size=0
dataAccessLatency=1
dataArrayBanks=1
eventq_index=0
is_icache=false
replacement_policy=system.caches.l1_cntrl4.L1Dcache.replacement_policy
resourceStalls=false
ruby_system=system.caches
size=16384
start_index_bit=6
tagAccessLatency=1
tagArrayBanks=1

[system.caches.l1_cntrl4.L1Dcache.replacement_policy]
type=TreePLRURP
eventq_index=0
num_leaves=8

[system.caches.l1_cntrl4.L1Icache]
type=RubyCache
children=replacement_policy
assoc=8
atomicALUs=64
atomicLatency=0
block_size=0
dataAccessLatency=1
dataArrayBanks=1
eventq_index=0
is_icache=true
replacement_policy=system.caches.l1_cntrl4.L1Icache.replacement_policy
resourceStalls=false
ruby_system=system.caches
size=16384
start_index_bit=6
tagAccessLatency=1
tagArrayBanks=1

[system.caches.l1_cntrl4.L1Icache.replacement_policy]
type=TreePLRURP
eventq_index=0
num_leaves=8

[system.caches.l1_cntrl4.mandatoryQueue]
type=MessageBuffer
allow_zero_latency=false
buffer_size=0
eventq_index=0
max_dequeue_rate=0
ordered=false
randomization=ruby_system
routing_priority=0

[system.caches.l1_cntrl4.power_state]
type=PowerState
clk_gate_bins=20
clk_gate_max=1000000000000
clk_gate_min=1000
default_state=UNDEFINED
eventq_index=0
leaders=
possible_states=

[system.caches.l1_cntrl4.requestFromL1Cache]
type=MessageBuffer
allow_zero_latency=false
buffer_size=0
eventq_index=0
max_dequeue_rate=0
ordered=false
randomization=ruby_system
routing_priority=0
out_port=system.caches.network.in_port[13]

[system.caches.l1_cntrl4.requestToL1Cache]
type=MessageBuffer
allow_zero_latency=false
buffer_size=0
eventq_index=0
max_dequeue_rate=0
ordered=false
randomization=ruby_system
routing_priority=0
in_port=system.caches.network.out_port[13]

[system.caches.l1_cntrl4.responseFromL1Cache]
type=MessageBuffer
allow_zero_latency=false
buffer_size=0
eventq_index=0
max_dequeue_rate=0
ordered=false
randomization=ruby_system
routing_priority=0
out_port=system.caches.network.in_port[14]

[system.caches.l1_cntrl4.responseToL1Cache]
type=MessageBuffer
allow_zero_latency=false
buffer_size=0
eventq_index=0
max_dequeue_rate=0
ordered=false
randomization=ruby_system
routing_priority=0
in_port=system.caches.network.out_port[14]

[system.caches.l1_cntrl4.sequencer]
type=RubySequencer
children=power_state
clk_domain=system.clk_domain
coreid=99
dcache=system.caches.l1_cntrl4.L1Dcache
deadlock_threshold=500000
eventq_index=0
garnet_standalone=false
is_cpu_sequencer=true
max_outstanding_requests=16
no_retry_on_stall=false
power_model=
power_state=system.caches.l1_cntrl4.sequencer.power_state
ruby_system=system.caches
support_data_reqs=true
support_inst_reqs=true
system=system
using_ruby_tester=false
version=4
in_ports=system.cpu4.icache_port system.cpu4.dcache_port system.cpu4.mmu.itb.walker.port system.cpu4.mmu.dtb.walker.port system.cpu4.interrupts.int_requestor
interrupt_out_port=system.cpu4.interrupts.pio system.cpu4.interrupts.int_responder

[system.caches.l1_cntrl4.sequencer.power_state]
type=PowerState
clk_gate_bins=20
clk_gate_max=1000000000000
clk_gate_min=1000
default_state=UNDEFINED
eventq_index=0
leaders=
possible_states=

[system.caches.l1_cntrl4.triggerQueue]
type=MessageBuffer
allow_zero_latency=false
buffer_size=0
eventq_index=0
max_dequeue_rate=0
ordered=true
randomization=ruby_system
routing_priority=0

[system.caches.l1_cntrl5]
type=L1Cache_Controller
children=L1Dcache L1Icache mandatoryQueue power_state requestFromL1Cache requestToL1Cache responseFromL1Cache responseToL1Cache sequencer triggerQueue
L1Dcache=system.caches.l1_cntrl5.L1Dcache
L1Icache=system.caches.l1_cntrl5.L1Icache
addr_ranges=0:18446744073709551615
buffer_size=0
clk_domain=system.clk_domain
cluster_id=0
downstream_destinations=
eventq_index=0
mandatoryQueue=system.caches.l1_cntrl5.mandatoryQueue
mandatory_queue_latency=1
number_of_TBEs=256
power_model=
power_state=system.caches.l1_cntrl5.power_state
recycle_latency=10
requestFromL1Cache=system.caches.l1_cntrl5.requestFromL1Cache
requestToL1Cache=system.caches.l1_cntrl5.requestToL1Cache
request_latency=1
responseFromL1Cache=system.caches.l1_cntrl5.responseFromL1Cache
responseToL1Cache=system.caches.l1_cntrl5.responseToL1Cache
response_latency=1
ruby_system=system.caches
send_evictions=true
sequencer=system.caches.l1_cntrl5.sequencer
system=system
transitions_per_cycle=32
triggerQueue=system.caches.l1_cntrl5.triggerQueue
upstream_destinations=
use_timeout_latency=50
version=5

[system.caches.l1_cntrl5.L1Dcache]
type=RubyCache
children=replacement_policy
assoc=8
atomicALUs=64
atomicLatency=0
block_size=0
dataAccessLatency=1
dataArrayBanks=1
eventq_index=0
is_icache=false
replacement_policy=system.caches.l1_cntrl5.L1Dcache.replacement_policy
resourceStalls=false
ruby_system=system.caches
size=16384
start_index_bit=6
tagAccessLatency=1
tagArrayBanks=1

[system.caches.l1_cntrl5.L1Dcache.replacement_policy]
type=TreePLRURP
eventq_index=0
num_leaves=8

[system.caches.l1_cntrl5.L1Icache]
type=RubyCache
children=replacement_policy
assoc=8
atomicALUs=64
atomicLatency=0
block_size=0
dataAccessLatency=1
dataArrayBanks=1
eventq_index=0
is_icache=true
replacement_policy=system.caches.l1_cntrl5.L1Icache.replacement_policy
resourceStalls=false
ruby_system=system.caches
size=16384
start_index_bit=6
tagAccessLatency=1
tagArrayBanks=1

[system.caches.l1_cntrl5.L1Icache.replacement_policy]
type=TreePLRURP
eventq_index=0
num_leaves=8

[system.caches.l1_cntrl5.mandatoryQueue]
type=MessageBuffer
allow_zero_latency=false
buffer_size=0
eventq_index=0
max_dequeue_rate=0
ordered=false
randomization=ruby_system
routing_priority=0

[system.caches.l1_cntrl5.power_state]
type=PowerState
clk_gate_bins=20
clk_gate_max=1000000000000
clk_gate_min=1000
default_state=UNDEFINED
eventq_index=0
leaders=
possible_states=

[system.caches.l1_cntrl5.requestFromL1Cache]
type=MessageBuffer
allow_zero_latency=false
buffer_size=0
eventq_index=0
max_dequeue_rate=0
ordered=false
randomization=ruby_system
routing_priority=0
out_port=system.caches.network.in_port[15]

[system.caches.l1_cntrl5.requestToL1Cache]
type=MessageBuffer
allow_zero_latency=false
buffer_size=0
eventq_index=0
max_dequeue_rate=0
ordered=false
randomization=ruby_system
routing_priority=0
in_port=system.caches.network.out_port[15]

[system.caches.l1_cntrl5.responseFromL1Cache]
type=MessageBuffer
allow_zero_latency=false
buffer_size=0
eventq_index=0
max_dequeue_rate=0
ordered=false
randomization=ruby_system